*Material, name=Material-1
*Density
 2.7e-09,
*Depvar
     28,
*User Material, constants=17
106430.,  60350.,  28210.,    0.01,   0.005, 46.7301,     1.4,      1.
      0.,      0.,      0.,      2., 411.256, 104.029, 1.35459,      0.
      1.,